/*--------------------------------*- C++ -*----------------------------------*\
| =========                 |                                                 |
| \\      /  F ield         | OpenFOAM: The Open Source CFD Toolbox           |
|  \\    /   O peration     | Version:  2.3.x                                 |
|   \\  /    A nd           | Web:      www.OpenFOAM.org                      |
|    \\/     M anipulation  |                                                 |
\*---------------------------------------------------------------------------*/
FoamFile
{
    version     2.0;
    format      ascii;
    class       extendedFeatureEdgeMesh;
    location    "constant/extendedFeatureEdgeMesh";
    object      NACA0012_1.extendedFeatureEdgeMesh;
}
// * * * * * * * * * * * * * * * * * * * * * * * * * * * * * * * * * * * * * //

// points

3996
(
(1 -1.66533e-17 -0.5)
(1 -1.66533e-17 0.5)
(0 0 -0.5)
(2.47234e-06 0.000279915 -0.5)
(2.47234e-06 -0.000279915 -0.5)
(9.88934e-06 0.000559455 -0.5)
(2.22509e-05 0.00083862 -0.5)
(3.9557e-05 0.00111741 -0.5)
(6.18073e-05 0.00139582 -0.5)
(8.90017e-05 0.00167386 -0.5)
(0.00012114 0.00195151 -0.5)
(0.000158222 0.00222879 -0.5)
(0.000200246 0.00250568 -0.5)
(0.000247214 0.0027822 -0.5)
(0.000299124 0.00305833 -0.5)
(0.000355975 0.00333408 -0.5)
(0.000417768 0.00360945 -0.5)
(0.000484501 0.00388443 -0.5)
(0.000556174 0.00415902 -0.5)
(0.000632786 0.00443323 -0.5)
(0.000714337 0.00470705 -0.5)
(0.000800825 0.00498048 -0.5)
(0.00089225 0.00525352 -0.5)
(0.000988611 0.00552617 -0.5)
(0.00108991 0.00579842 -0.5)
(0.00119614 0.00607028 -0.5)
(0.0013073 0.00634174 -0.5)
(0.00142339 0.00661281 -0.5)
(0.00154442 0.00688348 -0.5)
(0.00167037 0.00715375 -0.5)
(0.00180126 0.00742362 -0.5)
(0.00193707 0.00769308 -0.5)
(0.0020778 0.00796214 -0.5)
(0.00222346 0.0082308 -0.5)
(0.00237404 0.00849905 -0.5)
(0.00252954 0.00876689 -0.5)
(0.00268997 0.00903433 -0.5)
(0.00285531 0.00930135 -0.5)
(0.00302556 0.00956795 -0.5)
(0.00320074 0.00983415 -0.5)
(0.00338082 0.0100999 -0.5)
(0.00356582 0.0103653 -0.5)
(0.00375572 0.0106302 -0.5)
(0.00395054 0.0108947 -0.5)
(0.00415026 0.0111588 -0.5)
(0.00435488 0.0114225 -0.5)
(0.0045644 0.0116858 -0.5)
(0.00477883 0.0119486 -0.5)
(0.00499815 0.012211 -0.5)
(0.00522236 0.0124729 -0.5)
(0.00545147 0.0127344 -0.5)
(0.00568547 0.0129955 -0.5)
(0.00592436 0.0132562 -0.5)
(0.00616813 0.0135164 -0.5)
(0.00641679 0.0137761 -0.5)
(0.00667033 0.0140355 -0.5)
(0.00692875 0.0142943 -0.5)
(0.00719204 0.0145528 -0.5)
(0.00746021 0.0148107 -0.5)
(0.00773325 0.0150683 -0.5)
(0.00801116 0.0153253 -0.5)
(0.00829393 0.015582 -0.5)
(0.00858157 0.0158381 -0.5)
(0.00887406 0.0160938 -0.5)
(0.00917141 0.016349 -0.5)
(0.00947362 0.0166038 -0.5)
(0.00978068 0.0168581 -0.5)
(0.0100926 0.017112 -0.5)
(0.0104093 0.0173653 -0.5)
(0.0107309 0.0176182 -0.5)
(0.0110573 0.0178706 -0.5)
(0.0113886 0.0181226 -0.5)
(0.0117247 0.018374 -0.5)
(0.0120656 0.018625 -0.5)
(0.0124114 0.0188755 -0.5)
(0.012762 0.0191255 -0.5)
(0.0131174 0.019375 -0.5)
(0.0134776 0.019624 -0.5)
(0.0138426 0.0198725 -0.5)
(0.0142124 0.0201205 -0.5)
(0.014587 0.020368 -0.5)
(0.0149665 0.0206151 -0.5)
(0.0153507 0.0208616 -0.5)
(0.0157397 0.0211076 -0.5)
(0.0161335 0.0213531 -0.5)
(0.0165321 0.021598 -0.5)
(0.0169355 0.0218425 -0.5)
(0.0173436 0.0220865 -0.5)
(0.0177566 0.0223299 -0.5)
(0.0181743 0.0225728 -0.5)
(0.0185967 0.0228151 -0.5)
(0.0190239 0.023057 -0.5)
(0.0194559 0.0232983 -0.5)
(0.0198927 0.0235391 -0.5)
(0.0203341 0.0237793 -0.5)
(0.0207804 0.024019 -0.5)
(0.0212313 0.0242582 -0.5)
(0.021687 0.0244968 -0.5)
(0.0221474 0.0247348 -0.5)
(0.0226126 0.0249723 -0.5)
(0.0230825 0.0252093 -0.5)
(0.0235571 0.0254457 -0.5)
(0.0240363 0.0256815 -0.5)
(0.0245204 0.0259168 -0.5)
(0.0250091 0.0261515 -0.5)
(0.0255025 0.0263857 -0.5)
(0.0260006 0.0266192 -0.5)
(0.0265034 0.0268522 -0.5)
(0.0270108 0.0270847 -0.5)
(0.027523 0.0273165 -0.5)
(0.0280398 0.0275478 -0.5)
(0.0285613 0.0277784 -0.5)
(0.0290874 0.0280085 -0.5)
(0.0296182 0.028238 -0.5)
(0.0301537 0.0284669 -0.5)
(0.0306938 0.0286952 -0.5)
(0.0312385 0.0289229 -0.5)
(0.0317879 0.02915 -0.5)
(0.0323419 0.0293764 -0.5)
(0.0329006 0.0296023 -0.5)
(0.0334638 0.0298276 -0.5)
(0.0340317 0.0300522 -0.5)
(0.0346042 0.0302762 -0.5)
(0.0351813 0.0304996 -0.5)
(0.0357629 0.0307224 -0.5)
(0.0363492 0.0309446 -0.5)
(0.03694 0.0311661 -0.5)
(0.0375355 0.031387 -0.5)
(0.0381355 0.0316072 -0.5)
(0.0387401 0.0318268 -0.5)
(0.0393492 0.0320458 -0.5)
(0.0399629 0.0322641 -0.5)
(0.0405811 0.0324817 -0.5)
(0.0412039 0.0326988 -0.5)
(0.0418312 0.0329151 -0.5)
(0.0424631 0.0331308 -0.5)
(0.0430995 0.0333458 -0.5)
(0.0437404 0.0335602 -0.5)
(0.0443857 0.0337739 -0.5)
(0.0450357 0.0339869 -0.5)
(0.0456901 0.0341993 -0.5)
(0.046349 0.0344109 -0.5)
(0.0470124 0.0346219 -0.5)
(0.0476803 0.0348323 -0.5)
(0.0483526 0.0350419 -0.5)
(0.0490294 0.0352508 -0.5)
(0.0497107 0.035459 -0.5)
(0.0503964 0.0356666 -0.5)
(0.0510866 0.0358734 -0.5)
(0.0517812 0.0360795 -0.5)
(0.0524802 0.036285 -0.5)
(0.0531837 0.0364897 -0.5)
(0.0538916 0.0366937 -0.5)
(0.0546039 0.036897 -0.5)
(0.0553206 0.0370996 -0.5)
(0.0560417 0.0373014 -0.5)
(0.0567672 0.0375025 -0.5)
(0.057497 0.0377029 -0.5)
(0.0582313 0.0379026 -0.5)
(0.0589699 0.0381015 -0.5)
(0.0597129 0.0382997 -0.5)
(0.0604602 0.0384972 -0.5)
(0.0612119 0.0386939 -0.5)
(0.0619679 0.0388898 -0.5)
(0.0627283 0.039085 -0.5)
(0.0634929 0.0392795 -0.5)
(0.0642619 0.0394732 -0.5)
(0.0650352 0.0396661 -0.5)
(0.0658128 0.0398583 -0.5)
(0.0665947 0.0400498 -0.5)
(0.0673809 0.0402404 -0.5)
(0.0681714 0.0404303 -0.5)
(0.0689661 0.0406194 -0.5)
(0.0697651 0.0408077 -0.5)
(0.0705684 0.0409953 -0.5)
(0.0713759 0.041182 -0.5)
(0.0721876 0.041368 -0.5)
(0.0730036 0.0415532 -0.5)
(0.0738238 0.0417376 -0.5)
(0.0746482 0.0419212 -0.5)
(0.0754768 0.042104 -0.5)
(0.0763096 0.042286 -0.5)
(0.0771466 0.0424672 -0.5)
(0.0779878 0.0426476 -0.5)
(0.0788331 0.0428271 -0.5)
(0.0796826 0.0430059 -0.5)
(0.0805363 0.0431838 -0.5)
(0.0813941 0.043361 -0.5)
(0.0822561 0.0435373 -0.5)
(0.0831222 0.0437128 -0.5)
(0.0839924 0.0438874 -0.5)
(0.0848667 0.0440613 -0.5)
(0.0857452 0.0442343 -0.5)
(0.0866277 0.0444064 -0.5)
(0.0875143 0.0445778 -0.5)
(0.088405 0.0447482 -0.5)
(0.0892998 0.0449179 -0.5)
(0.0901986 0.0450867 -0.5)
(0.0911015 0.0452546 -0.5)
(0.0920084 0.0454217 -0.5)
(0.0929194 0.0455879 -0.5)
(0.0938344 0.0457533 -0.5)
(0.0947534 0.0459178 -0.5)
(0.0956764 0.0460815 -0.5)
(0.0966034 0.0462443 -0.5)
(0.0975344 0.0464062 -0.5)
(0.0984694 0.0465673 -0.5)
(0.0994084 0.0467274 -0.5)
(0.100351 0.0468867 -0.5)
(0.101298 0.0470452 -0.5)
(0.102249 0.0472027 -0.5)
(0.103204 0.0473594 -0.5)
(0.104162 0.0475152 -0.5)
(0.105125 0.0476701 -0.5)
(0.106091 0.0478241 -0.5)
(0.107062 0.0479772 -0.5)
(0.108036 0.0481294 -0.5)
(0.109014 0.0482807 -0.5)
(0.109996 0.0484311 -0.5)
(0.110982 0.0485806 -0.5)
(0.111972 0.0487292 -0.5)
(0.112965 0.0488769 -0.5)
(0.113963 0.0490237 -0.5)
(0.114964 0.0491696 -0.5)
(0.115969 0.0493146 -0.5)
(0.116978 0.0494586 -0.5)
(0.11799 0.0496018 -0.5)
(0.119007 0.049744 -0.5)
(0.120027 0.0498853 -0.5)
(0.121051 0.0500256 -0.5)
(0.122078 0.0501651 -0.5)
(0.12311 0.0503036 -0.5)
(0.124145 0.0504412 -0.5)
(0.125184 0.0505778 -0.5)
(0.126226 0.0507135 -0.5)
(0.127273 0.0508483 -0.5)
(0.128322 0.0509821 -0.5)
(0.129376 0.051115 -0.5)
(0.130433 0.051247 -0.5)
(0.131494 0.051378 -0.5)
(0.132559 0.0515081 -0.5)
(0.133627 0.0516372 -0.5)
(0.134699 0.0517653 -0.5)
(0.135774 0.0518925 -0.5)
(0.136853 0.0520188 -0.5)
(0.137936 0.0521441 -0.5)
(0.139022 0.0522685 -0.5)
(0.140112 0.0523918 -0.5)
(0.141205 0.0525143 -0.5)
(0.142302 0.0526357 -0.5)
(0.143402 0.0527562 -0.5)
(0.144506 0.0528758 -0.5)
(0.145614 0.0529944 -0.5)
(0.146725 0.053112 -0.5)
(0.147839 0.0532286 -0.5)
(0.148957 0.0533443 -0.5)
(0.150079 0.053459 -0.5)
(0.151203 0.0535727 -0.5)
(0.152332 0.0536854 -0.5)
(0.153463 0.0537972 -0.5)
(0.154599 0.0539079 -0.5)
(0.155737 0.0540178 -0.5)
(0.156879 0.0541266 -0.5)
(0.158025 0.0542344 -0.5)
(0.159173 0.0543413 -0.5)
(0.160325 0.0544472 -0.5)
(0.161481 0.054552 -0.5)
(0.16264 0.054656 -0.5)
(0.163802 0.0547589 -0.5)
(0.164968 0.0548608 -0.5)
(0.166136 0.0549617 -0.5)
(0.167308 0.0550617 -0.5)
(0.168484 0.0551606 -0.5)
(0.169663 0.0552586 -0.5)
(0.170845 0.0553556 -0.5)
(0.17203 0.0554515 -0.5)
(0.173218 0.0555465 -0.5)
(0.17441 0.0556405 -0.5)
(0.175605 0.0557335 -0.5)
(0.176803 0.0558255 -0.5)
(0.178004 0.0559165 -0.5)
(0.179209 0.0560064 -0.5)
(0.180416 0.0560954 -0.5)
(0.181627 0.0561834 -0.5)
(0.182841 0.0562704 -0.5)
(0.184059 0.0563564 -0.5)
(0.185279 0.0564413 -0.5)
(0.186502 0.0565253 -0.5)
(0.187728 0.0566083 -0.5)
(0.188958 0.0566903 -0.5)
(0.190191 0.0567712 -0.5)
(0.191426 0.0568512 -0.5)
(0.192665 0.0569301 -0.5)
(0.193907 0.0570081 -0.5)
(0.195152 0.057085 -0.5)
(0.196399 0.0571609 -0.5)
(0.19765 0.0572359 -0.5)
(0.198904 0.0573098 -0.5)
(0.200161 0.0573827 -0.5)
(0.201421 0.0574546 -0.5)
(0.202683 0.0575255 -0.5)
(0.203949 0.0575954 -0.5)
(0.205218 0.0576642 -0.5)
(0.206489 0.0577321 -0.5)
(0.207763 0.057799 -0.5)
(0.209041 0.0578648 -0.5)
(0.210321 0.0579297 -0.5)
(0.211604 0.0579935 -0.5)
(0.21289 0.0580563 -0.5)
(0.214179 0.0581181 -0.5)
(0.21547 0.058179 -0.5)
(0.216764 0.0582388 -0.5)
(0.218062 0.0582976 -0.5)
(0.219362 0.0583554 -0.5)
(0.220664 0.0584121 -0.5)
(0.22197 0.0584679 -0.5)
(0.223278 0.0585227 -0.5)
(0.224589 0.0585764 -0.5)
(0.225903 0.0586292 -0.5)
(0.227219 0.058681 -0.5)
(0.228538 0.0587317 -0.5)
(0.22986 0.0587814 -0.5)
(0.231184 0.0588302 -0.5)
(0.232512 0.0588779 -0.5)
(0.233841 0.0589247 -0.5)
(0.235174 0.0589704 -0.5)
(0.236509 0.0590151 -0.5)
(0.237846 0.0590588 -0.5)
(0.239187 0.0591016 -0.5)
(0.240529 0.0591433 -0.5)
(0.241875 0.059184 -0.5)
(0.243223 0.0592238 -0.5)
(0.244573 0.0592625 -0.5)
(0.245926 0.0593003 -0.5)
(0.247282 0.059337 -0.5)
(0.248639 0.0593727 -0.5)
(0.25 0.0594075 -0.5)
(0.251363 0.0594413 -0.5)
(0.252728 0.059474 -0.5)
(0.254096 0.0595058 -0.5)
(0.255466 0.0595366 -0.5)
(0.256839 0.0595664 -0.5)
(0.258214 0.0595952 -0.5)
(0.259592 0.0596231 -0.5)
(0.260972 0.0596499 -0.5)
(0.262354 0.0596757 -0.5)
(0.263739 0.0597006 -0.5)
(0.265125 0.0597245 -0.5)
(0.266515 0.0597474 -0.5)
(0.267906 0.0597694 -0.5)
(0.2693 0.0597903 -0.5)
(0.270696 0.0598103 -0.5)
(0.272095 0.0598293 -0.5)
(0.273495 0.0598473 -0.5)
(0.274898 0.0598644 -0.5)
(0.276303 0.0598805 -0.5)
(0.277711 0.0598956 -0.5)
(0.27912 0.0599097 -0.5)
(0.280532 0.0599229 -0.5)
(0.281946 0.0599351 -0.5)
(0.283362 0.0599464 -0.5)
(0.28478 0.0599567 -0.5)
(0.2862 0.059966 -0.5)
(0.287623 0.0599744 -0.5)
(0.289047 0.0599818 -0.5)
(0.290474 0.0599883 -0.5)
(0.291903 0.0599938 -0.5)
(0.293333 0.0599983 -0.5)
(0.294766 0.0600019 -0.5)
(0.296201 0.0600046 -0.5)
(0.297638 0.0600063 -0.5)
(0.299076 0.0600071 -0.5)
(0.300517 0.0600069 -0.5)
(0.30196 0.0600058 -0.5)
(0.303405 0.0600037 -0.5)
(0.304852 0.0600007 -0.5)
(0.3063 0.0599968 -0.5)
(0.307751 0.0599919 -0.5)
(0.309203 0.0599862 -0.5)
(0.310658 0.0599794 -0.5)
(0.312114 0.0599718 -0.5)
(0.313572 0.0599632 -0.5)
(0.315032 0.0599537 -0.5)
(0.316493 0.0599433 -0.5)
(0.317957 0.059932 -0.5)
(0.319422 0.0599197 -0.5)
(0.320889 0.0599066 -0.5)
(0.322358 0.0598925 -0.5)
(0.323829 0.0598775 -0.5)
(0.325301 0.0598616 -0.5)
(0.326775 0.0598449 -0.5)
(0.328251 0.0598272 -0.5)
(0.329729 0.0598086 -0.5)
(0.331208 0.0597891 -0.5)
(0.332689 0.0597687 -0.5)
(0.334172 0.0597474 -0.5)
(0.335656 0.0597252 -0.5)
(0.337142 0.0597022 -0.5)
(0.338629 0.0596782 -0.5)
(0.340118 0.0596534 -0.5)
(0.341609 0.0596277 -0.5)
(0.343101 0.0596011 -0.5)
(0.344595 0.0595737 -0.5)
(0.34609 0.0595453 -0.5)
(0.347587 0.0595161 -0.5)
(0.349085 0.0594861 -0.5)
(0.350585 0.0594551 -0.5)
(0.352086 0.0594233 -0.5)
(0.353589 0.0593907 -0.5)
(0.355093 0.0593571 -0.5)
(0.356598 0.0593228 -0.5)
(0.358105 0.0592876 -0.5)
(0.359614 0.0592515 -0.5)
(0.361124 0.0592146 -0.5)
(0.362635 0.0591768 -0.5)
(0.364147 0.0591382 -0.5)
(0.365661 0.0590988 -0.5)
(0.367177 0.0590585 -0.5)
(0.368693 0.0590174 -0.5)
(0.370211 0.0589755 -0.5)
(0.37173 0.0589327 -0.5)
(0.37325 0.0588891 -0.5)
(0.374772 0.0588447 -0.5)
(0.376295 0.0587995 -0.5)
(0.377819 0.0587534 -0.5)
(0.379344 0.0587066 -0.5)
(0.380871 0.0586589 -0.5)
(0.382398 0.0586105 -0.5)
(0.383927 0.0585612 -0.5)
(0.385457 0.0585111 -0.5)
(0.386988 0.0584602 -0.5)
(0.388521 0.0584086 -0.5)
(0.390054 0.0583561 -0.5)
(0.391588 0.0583029 -0.5)
(0.393124 0.0582489 -0.5)
(0.39466 0.058194 -0.5)
(0.396198 0.0581385 -0.5)
(0.397737 0.0580821 -0.5)
(0.399276 0.058025 -0.5)
(0.400817 0.0579671 -0.5)
(0.402359 0.0579084 -0.5)
(0.403901 0.057849 -0.5)
(0.405445 0.0577888 -0.5)
(0.406989 0.0577278 -0.5)
(0.408534 0.0576661 -0.5)
(0.410081 0.0576036 -0.5)
(0.411628 0.0575405 -0.5)
(0.413176 0.0574765 -0.5)
(0.414725 0.0574118 -0.5)
(0.416275 0.0573464 -0.5)
(0.417825 0.0572802 -0.5)
(0.419376 0.0572134 -0.5)
(0.420929 0.0571457 -0.5)
(0.422482 0.0570774 -0.5)
(0.424035 0.0570083 -0.5)
(0.42559 0.0569386 -0.5)
(0.427145 0.0568681 -0.5)
(0.428701 0.0567968 -0.5)
(0.430258 0.0567249 -0.5)
(0.431815 0.0566523 -0.5)
(0.433373 0.056579 -0.5)
(0.434932 0.056505 -0.5)
(0.436491 0.0564303 -0.5)
(0.438051 0.0563549 -0.5)
(0.439612 0.0562788 -0.5)
(0.441173 0.056202 -0.5)
(0.442735 0.0561245 -0.5)
(0.444297 0.0560464 -0.5)
(0.44586 0.0559676 -0.5)
(0.447423 0.0558881 -0.5)
(0.448987 0.055808 -0.5)
(0.450551 0.0557272 -0.5)
(0.452116 0.0556457 -0.5)
(0.453682 0.0555635 -0.5)
(0.455247 0.0554808 -0.5)
(0.456814 0.0553973 -0.5)
(0.45838 0.0553132 -0.5)
(0.459948 0.0552285 -0.5)
(0.461515 0.0551432 -0.5)
(0.463083 0.0550572 -0.5)
(0.464651 0.0549705 -0.5)
(0.46622 0.0548833 -0.5)
(0.467789 0.0547954 -0.5)
(0.469358 0.0547069 -0.5)
(0.470928 0.0546177 -0.5)
(0.472497 0.054528 -0.5)
(0.474068 0.0544376 -0.5)
(0.475638 0.0543467 -0.5)
(0.477209 0.0542551 -0.5)
(0.478779 0.0541629 -0.5)
(0.48035 0.0540702 -0.5)
(0.481922 0.0539768 -0.5)
(0.483493 0.0538828 -0.5)
(0.485065 0.0537883 -0.5)
(0.486636 0.0536932 -0.5)
(0.488208 0.0535975 -0.5)
(0.48978 0.0535012 -0.5)
(0.491352 0.0534043 -0.5)
(0.492925 0.0533069 -0.5)
(0.494497 0.0532089 -0.5)
(0.496069 0.0531103 -0.5)
(0.497642 0.0530112 -0.5)
(0.499214 0.0529115 -0.5)
(0.500786 0.0528113 -0.5)
(0.502358 0.0527106 -0.5)
(0.503931 0.0526092 -0.5)
(0.505503 0.0525074 -0.5)
(0.507075 0.052405 -0.5)
(0.508648 0.052302 -0.5)
(0.51022 0.0521986 -0.5)
(0.511792 0.0520946 -0.5)
(0.513363 0.0519901 -0.5)
(0.514935 0.051885 -0.5)
(0.516507 0.0517795 -0.5)
(0.518078 0.0516734 -0.5)
(0.51965 0.0515669 -0.5)
(0.521221 0.0514598 -0.5)
(0.522791 0.0513522 -0.5)
(0.524362 0.0512441 -0.5)
(0.525932 0.0511355 -0.5)
(0.527503 0.0510265 -0.5)
(0.529072 0.0509169 -0.5)
(0.530642 0.0508069 -0.5)
(0.532211 0.0506963 -0.5)
(0.53378 0.0505853 -0.5)
(0.535349 0.0504739 -0.5)
(0.536917 0.0503619 -0.5)
(0.538485 0.0502495 -0.5)
(0.540052 0.0501366 -0.5)
(0.54162 0.0500233 -0.5)
(0.543186 0.0499095 -0.5)
(0.544752 0.0497952 -0.5)
(0.546318 0.0496805 -0.5)
(0.547884 0.0495654 -0.5)
(0.549449 0.0494498 -0.5)
(0.551013 0.0493338 -0.5)
(0.552577 0.0492173 -0.5)
(0.55414 0.0491004 -0.5)
(0.555703 0.0489831 -0.5)
(0.557266 0.0488654 -0.5)
(0.558827 0.0487472 -0.5)
(0.560388 0.0486286 -0.5)
(0.561949 0.0485096 -0.5)
(0.563509 0.0483902 -0.5)
(0.565068 0.0482704 -0.5)
(0.566627 0.0481502 -0.5)
(0.568185 0.0480295 -0.5)
(0.569742 0.0479085 -0.5)
(0.571299 0.0477871 -0.5)
(0.572855 0.0476653 -0.5)
(0.57441 0.0475431 -0.5)
(0.575965 0.0474206 -0.5)
(0.577518 0.0472976 -0.5)
(0.579071 0.0471743 -0.5)
(0.580624 0.0470506 -0.5)
(0.582175 0.0469265 -0.5)
(0.583725 0.0468021 -0.5)
(0.585275 0.0466773 -0.5)
(0.586824 0.0465521 -0.5)
(0.588372 0.0464266 -0.5)
(0.589919 0.0463007 -0.5)
(0.591466 0.0461745 -0.5)
(0.593011 0.0460479 -0.5)
(0.594555 0.0459211 -0.5)
(0.596099 0.0457938 -0.5)
(0.597642 0.0456662 -0.5)
(0.599183 0.0455383 -0.5)
(0.600724 0.0454101 -0.5)
(0.602263 0.0452815 -0.5)
(0.603802 0.0451527 -0.5)
(0.60534 0.0450235 -0.5)
(0.606876 0.044894 -0.5)
(0.608412 0.0447641 -0.5)
(0.609946 0.044634 -0.5)
(0.611479 0.0445036 -0.5)
(0.613012 0.0443728 -0.5)
(0.614543 0.0442418 -0.5)
(0.616073 0.0441105 -0.5)
(0.617602 0.0439788 -0.5)
(0.619129 0.0438469 -0.5)
(0.620656 0.0437147 -0.5)
(0.622181 0.0435823 -0.5)
(0.623705 0.0434495 -0.5)
(0.625228 0.0433165 -0.5)
(0.62675 0.0431832 -0.5)
(0.62827 0.0430496 -0.5)
(0.629789 0.0429158 -0.5)
(0.631307 0.0427817 -0.5)
(0.632824 0.0426474 -0.5)
(0.634339 0.0425128 -0.5)
(0.635853 0.0423779 -0.5)
(0.637365 0.0422428 -0.5)
(0.638876 0.0421075 -0.5)
(0.640386 0.0419719 -0.5)
(0.641895 0.041836 -0.5)
(0.643402 0.0417 -0.5)
(0.644907 0.0415637 -0.5)
(0.646411 0.0414272 -0.5)
(0.647914 0.0412904 -0.5)
(0.649415 0.0411535 -0.5)
(0.650915 0.0410163 -0.5)
(0.652413 0.0408789 -0.5)
(0.65391 0.0407413 -0.5)
(0.655406 0.0406035 -0.5)
(0.656899 0.0404654 -0.5)
(0.658391 0.0403272 -0.5)
(0.659882 0.0401888 -0.5)
(0.661371 0.0400502 -0.5)
(0.662858 0.0399114 -0.5)
(0.664344 0.0397724 -0.5)
(0.665828 0.0396332 -0.5)
(0.667311 0.0394938 -0.5)
(0.668792 0.0393542 -0.5)
(0.670271 0.0392145 -0.5)
(0.671749 0.0390746 -0.5)
(0.673225 0.0389345 -0.5)
(0.674699 0.0387943 -0.5)
(0.676171 0.0386539 -0.5)
(0.677642 0.0385133 -0.5)
(0.679111 0.0383726 -0.5)
(0.680578 0.0382317 -0.5)
(0.682043 0.0380907 -0.5)
(0.683507 0.0379495 -0.5)
(0.684968 0.0378082 -0.5)
(0.686428 0.0376668 -0.5)
(0.687886 0.0375252 -0.5)
(0.689342 0.0373834 -0.5)
(0.690797 0.0372416 -0.5)
(0.692249 0.0370996 -0.5)
(0.6937 0.0369574 -0.5)
(0.695148 0.0368152 -0.5)
(0.696595 0.0366728 -0.5)
(0.69804 0.0365303 -0.5)
(0.699483 0.0363877 -0.5)
(0.700924 0.036245 -0.5)
(0.702362 0.0361022 -0.5)
(0.703799 0.0359593 -0.5)
(0.705234 0.0358163 -0.5)
(0.706667 0.0356732 -0.5)
(0.708098 0.0355299 -0.5)
(0.709526 0.0353867 -0.5)
(0.710953 0.0352433 -0.5)
(0.712377 0.0350998 -0.5)
(0.7138 0.0349562 -0.5)
(0.71522 0.0348126 -0.5)
(0.716638 0.0346688 -0.5)
(0.718054 0.0345251 -0.5)
(0.719468 0.0343812 -0.5)
(0.72088 0.0342373 -0.5)
(0.722289 0.0340932 -0.5)
(0.723697 0.0339492 -0.5)
(0.725102 0.0338051 -0.5)
(0.726505 0.0336609 -0.5)
(0.727905 0.0335167 -0.5)
(0.729304 0.0333724 -0.5)
(0.7307 0.0332281 -0.5)
(0.732094 0.0330837 -0.5)
(0.733485 0.0329393 -0.5)
(0.734875 0.0327949 -0.5)
(0.736261 0.0326504 -0.5)
(0.737646 0.0325059 -0.5)
(0.739028 0.0323614 -0.5)
(0.740408 0.0322168 -0.5)
(0.741786 0.0320722 -0.5)
(0.743161 0.0319276 -0.5)
(0.744533 0.031783 -0.5)
(0.745904 0.0316383 -0.5)
(0.747272 0.0314937 -0.5)
(0.748637 0.0313491 -0.5)
(0.75 0.0312044 -0.5)
(0.75136 0.0310597 -0.5)
(0.752719 0.0309151 -0.5)
(0.754074 0.0307704 -0.5)
(0.755427 0.0306258 -0.5)
(0.756777 0.0304812 -0.5)
(0.758125 0.0303365 -0.5)
(0.759471 0.0301919 -0.5)
(0.760813 0.0300473 -0.5)
(0.762154 0.0299028 -0.5)
(0.763491 0.0297582 -0.5)
(0.764826 0.0296137 -0.5)
(0.766159 0.0294692 -0.5)
(0.767488 0.0293248 -0.5)
(0.768816 0.0291804 -0.5)
(0.77014 0.029036 -0.5)
(0.771462 0.0288917 -0.5)
(0.772781 0.0287474 -0.5)
(0.774097 0.0286032 -0.5)
(0.775411 0.028459 -0.5)
(0.776722 0.0283149 -0.5)
(0.77803 0.0281708 -0.5)
(0.779336 0.0280268 -0.5)
(0.780638 0.0278829 -0.5)
(0.781938 0.027739 -0.5)
(0.783235 0.0275952 -0.5)
(0.78453 0.0274515 -0.5)
(0.785821 0.0273078 -0.5)
(0.78711 0.0271642 -0.5)
(0.788396 0.0270207 -0.5)
(0.789679 0.0268773 -0.5)
(0.790959 0.026734 -0.5)
(0.792237 0.0265907 -0.5)
(0.793511 0.0264476 -0.5)
(0.794782 0.0263045 -0.5)
(0.796051 0.0261616 -0.5)
(0.797317 0.0260187 -0.5)
(0.798579 0.025876 -0.5)
(0.799839 0.0257333 -0.5)
(0.801096 0.0255908 -0.5)
(0.80235 0.0254484 -0.5)
(0.8036 0.0253061 -0.5)
(0.804848 0.0251639 -0.5)
(0.806093 0.0250218 -0.5)
(0.807335 0.0248799 -0.5)
(0.808574 0.0247381 -0.5)
(0.809809 0.0245964 -0.5)
(0.811042 0.0244548 -0.5)
(0.812271 0.0243134 -0.5)
(0.813498 0.0241722 -0.5)
(0.814721 0.024031 -0.5)
(0.815942 0.02389 -0.5)
(0.817159 0.0237492 -0.5)
(0.818373 0.0236085 -0.5)
(0.819583 0.023468 -0.5)
(0.820791 0.0233276 -0.5)
(0.821996 0.0231874 -0.5)
(0.823197 0.0230473 -0.5)
(0.824395 0.0229074 -0.5)
(0.82559 0.0227677 -0.5)
(0.826782 0.0226282 -0.5)
(0.82797 0.0224888 -0.5)
(0.829155 0.0223496 -0.5)
(0.830337 0.0222105 -0.5)
(0.831516 0.0220717 -0.5)
(0.832691 0.0219331 -0.5)
(0.833864 0.0217946 -0.5)
(0.835032 0.0216563 -0.5)
(0.836198 0.0215182 -0.5)
(0.83736 0.0213803 -0.5)
(0.838519 0.0212427 -0.5)
(0.839674 0.0211052 -0.5)
(0.840827 0.0209679 -0.5)
(0.841975 0.0208308 -0.5)
(0.843121 0.0206939 -0.5)
(0.844263 0.0205573 -0.5)
(0.845401 0.0204209 -0.5)
(0.846537 0.0202847 -0.5)
(0.847668 0.0201487 -0.5)
(0.848797 0.0200129 -0.5)
(0.849922 0.0198774 -0.5)
(0.851043 0.019742 -0.5)
(0.852161 0.019607 -0.5)
(0.853275 0.0194722 -0.5)
(0.854386 0.0193375 -0.5)
(0.855494 0.0192032 -0.5)
(0.856598 0.0190691 -0.5)
(0.857698 0.0189352 -0.5)
(0.858795 0.0188016 -0.5)
(0.859888 0.0186683 -0.5)
(0.860978 0.0185352 -0.5)
(0.862064 0.0184023 -0.5)
(0.863147 0.0182697 -0.5)
(0.864226 0.0181374 -0.5)
(0.865301 0.0180054 -0.5)
(0.866373 0.0178736 -0.5)
(0.867441 0.0177421 -0.5)
(0.868506 0.0176109 -0.5)
(0.869567 0.01748 -0.5)
(0.870624 0.0173493 -0.5)
(0.871678 0.0172189 -0.5)
(0.872728 0.0170888 -0.5)
(0.873774 0.016959 -0.5)
(0.874816 0.0168295 -0.5)
(0.875855 0.0167003 -0.5)
(0.87689 0.0165714 -0.5)
(0.877922 0.0164428 -0.5)
(0.878949 0.0163145 -0.5)
(0.879973 0.0161865 -0.5)
(0.880993 0.0160588 -0.5)
(0.88201 0.0159314 -0.5)
(0.883022 0.0158044 -0.5)
(0.884031 0.0156776 -0.5)
(0.885036 0.0155512 -0.5)
(0.886037 0.0154252 -0.5)
(0.887035 0.0152994 -0.5)
(0.888028 0.015174 -0.5)
(0.889018 0.0150489 -0.5)
(0.890004 0.0149241 -0.5)
(0.890986 0.0147997 -0.5)
(0.891964 0.0146756 -0.5)
(0.892938 0.0145518 -0.5)
(0.893909 0.0144284 -0.5)
(0.894875 0.0143054 -0.5)
(0.895838 0.0141827 -0.5)
(0.896796 0.0140604 -0.5)
(0.897751 0.0139384 -0.5)
(0.898702 0.0138168 -0.5)
(0.899649 0.0136955 -0.5)
(0.900592 0.0135746 -0.5)
(0.901531 0.0134541 -0.5)
(0.902466 0.013334 -0.5)
(0.903397 0.0132142 -0.5)
(0.904324 0.0130948 -0.5)
(0.905247 0.0129758 -0.5)
(0.906166 0.0128571 -0.5)
(0.907081 0.0127389 -0.5)
(0.907992 0.012621 -0.5)
(0.908898 0.0125036 -0.5)
(0.909801 0.0123865 -0.5)
(0.9107 0.0122698 -0.5)
(0.911595 0.0121535 -0.5)
(0.912486 0.0120376 -0.5)
(0.913372 0.0119222 -0.5)
(0.914255 0.0118071 -0.5)
(0.915133 0.0116924 -0.5)
(0.916008 0.0115782 -0.5)
(0.916878 0.0114644 -0.5)
(0.917744 0.011351 -0.5)
(0.918606 0.011238 -0.5)
(0.919464 0.0111254 -0.5)
(0.920317 0.0110132 -0.5)
(0.921167 0.0109015 -0.5)
(0.922012 0.0107903 -0.5)
(0.922853 0.0106794 -0.5)
(0.92369 0.010569 -0.5)
(0.924523 0.010459 -0.5)
(0.925352 0.0103495 -0.5)
(0.926176 0.0102404 -0.5)
(0.926996 0.0101318 -0.5)
(0.927812 0.0100236 -0.5)
(0.928624 0.00991585 -0.5)
(0.929432 0.00980857 -0.5)
(0.930235 0.00970175 -0.5)
(0.931034 0.00959538 -0.5)
(0.931829 0.00948949 -0.5)
(0.932619 0.00938405 -0.5)
(0.933405 0.00927908 -0.5)
(0.934187 0.00917459 -0.5)
(0.934965 0.00907057 -0.5)
(0.935738 0.00896702 -0.5)
(0.936507 0.00886395 -0.5)
(0.937272 0.00876136 -0.5)
(0.938032 0.00865926 -0.5)
(0.938788 0.00855764 -0.5)
(0.93954 0.00845651 -0.5)
(0.940287 0.00835587 -0.5)
(0.94103 0.00825572 -0.5)
(0.941769 0.00815607 -0.5)
(0.942503 0.00805692 -0.5)
(0.943233 0.00795827 -0.5)
(0.943958 0.00786012 -0.5)
(0.944679 0.00776248 -0.5)
(0.945396 0.00766535 -0.5)
(0.946108 0.00756872 -0.5)
(0.946816 0.00747262 -0.5)
(0.94752 0.00737702 -0.5)
(0.948219 0.00728195 -0.5)
(0.948913 0.00718739 -0.5)
(0.949604 0.00709336 -0.5)
(0.950289 0.00699985 -0.5)
(0.950971 0.00690687 -0.5)
(0.951647 0.00681442 -0.5)
(0.95232 0.0067225 -0.5)
(0.952988 0.00663112 -0.5)
(0.953651 0.00654027 -0.5)
(0.95431 0.00644997 -0.5)
(0.954964 0.0063602 -0.5)
(0.955614 0.00627098 -0.5)
(0.95626 0.00618231 -0.5)
(0.9569 0.00609418 -0.5)
(0.957537 0.00600661 -0.5)
(0.958169 0.00591959 -0.5)
(0.958796 0.00583312 -0.5)
(0.959419 0.00574721 -0.5)
(0.960037 0.00566186 -0.5)
(0.960651 0.00557708 -0.5)
(0.96126 0.00549286 -0.5)
(0.961864 0.0054092 -0.5)
(0.962465 0.00532612 -0.5)
(0.96306 0.0052436 -0.5)
(0.963651 0.00516166 -0.5)
(0.964237 0.00508029 -0.5)
(0.964819 0.0049995 -0.5)
(0.965396 0.00491929 -0.5)
(0.965968 0.00483967 -0.5)
(0.966536 0.00476062 -0.5)
(0.967099 0.00468217 -0.5)
(0.967658 0.0046043 -0.5)
(0.968212 0.00452702 -0.5)
(0.968762 0.00445033 -0.5)
(0.969306 0.00437424 -0.5)
(0.969846 0.00429874 -0.5)
(0.970382 0.00422384 -0.5)
(0.970913 0.00414954 -0.5)
(0.971439 0.00407585 -0.5)
(0.97196 0.00400276 -0.5)
(0.972477 0.00393027 -0.5)
(0.972989 0.0038584 -0.5)
(0.973497 0.00378713 -0.5)
(0.973999 0.00371648 -0.5)
(0.974497 0.00364644 -0.5)
(0.974991 0.00357701 -0.5)
(0.97548 0.00350821 -0.5)
(0.975964 0.00344002 -0.5)
(0.976443 0.00337246 -0.5)
(0.976918 0.00330552 -0.5)
(0.977387 0.0032392 -0.5)
(0.977853 0.00317351 -0.5)
(0.978313 0.00310845 -0.5)
(0.978769 0.00304402 -0.5)
(0.97922 0.00298023 -0.5)
(0.979666 0.00291707 -0.5)
(0.980107 0.00285454 -0.5)
(0.980544 0.00279265 -0.5)
(0.980976 0.0027314 -0.5)
(0.981403 0.00267079 -0.5)
(0.981826 0.00261083 -0.5)
(0.982243 0.00255151 -0.5)
(0.982656 0.00249283 -0.5)
(0.983064 0.00243481 -0.5)
(0.983468 0.00237743 -0.5)
(0.983867 0.0023207 -0.5)
(0.98426 0.00226463 -0.5)
(0.984649 0.00220921 -0.5)
(0.985034 0.00215444 -0.5)
(0.985413 0.00210033 -0.5)
(0.985788 0.00204688 -0.5)
(0.986157 0.0019941 -0.5)
(0.986522 0.00194197 -0.5)
(0.986883 0.00189051 -0.5)
(0.987238 0.00183971 -0.5)
(0.987589 0.00178957 -0.5)
(0.987934 0.00174011 -0.5)
(0.988275 0.00169131 -0.5)
(0.988611 0.00164318 -0.5)
(0.988943 0.00159573 -0.5)
(0.989269 0.00154894 -0.5)
(0.989591 0.00150284 -0.5)
(0.989907 0.0014574 -0.5)
(0.990219 0.00141265 -0.5)
(0.990526 0.00136857 -0.5)
(0.990829 0.00132517 -0.5)
(0.991126 0.00128245 -0.5)
(0.991418 0.00124042 -0.5)
(0.991706 0.00119906 -0.5)
(0.991989 0.00115839 -0.5)
(0.992267 0.00111841 -0.5)
(0.99254 0.00107911 -0.5)
(0.992808 0.0010405 -0.5)
(0.993071 0.00100258 -0.5)
(0.99333 0.00096535 -0.5)
(0.993583 0.00092881 -0.5)
(0.993832 0.000892961 -0.5)
(0.994076 0.000857805 -0.5)
(0.994314 0.000823342 -0.5)
(0.994548 0.000789575 -0.5)
(0.994778 0.000756504 -0.5)
(0.995002 0.000724129 -0.5)
(0.995221 0.000692452 -0.5)
(0.995436 0.000661474 -0.5)
(0.995645 0.000631196 -0.5)
(0.99585 0.000601618 -0.5)
(0.99605 0.000572741 -0.5)
(0.996244 0.000544566 -0.5)
(0.996434 0.000517094 -0.5)
(0.996619 0.000490325 -0.5)
(0.996799 0.000464262 -0.5)
(0.996974 0.000438903 -0.5)
(0.997145 0.00041425 -0.5)
(0.99731 0.000390305 -0.5)
(0.99747 0.000367066 -0.5)
(0.997626 0.000344535 -0.5)
(0.997777 0.000322714 -0.5)
(0.997922 0.000301601 -0.5)
(0.998063 0.000281199 -0.5)
(0.998199 0.000261507 -0.5)
(0.99833 0.000242525 -0.5)
(0.998456 0.000224256 -0.5)
(0.998577 0.000206699 -0.5)
(0.998693 0.000189855 -0.5)
(0.998804 0.000173723 -0.5)
(0.99891 0.000158306 -0.5)
(0.999011 0.000143602 -0.5)
(0.999108 0.000129614 -0.5)
(0.999199 0.000116339 -0.5)
(0.999286 0.000103781 -0.5)
(0.999367 9.19377e-05 -0.5)
(0.999444 8.08107e-05 -0.5)
(0.999515 7.04001e-05 -0.5)
(0.999582 6.07061e-05 -0.5)
(0.999644 5.1729e-05 -0.5)
(0.999701 4.34692e-05 -0.5)
(0.999753 3.59268e-05 -0.5)
(0.9998 2.9102e-05 -0.5)
(0.999842 2.29951e-05 -0.5)
(0.999879 1.76063e-05 -0.5)
(0.999911 1.29357e-05 -0.5)
(0.999938 8.98333e-06 -0.5)
(0.99996 5.74946e-06 -0.5)
(0.999978 3.23412e-06 -0.5)
(0.99999 1.43741e-06 -0.5)
(0.999997 3.59354e-07 -0.5)
(0.999997 -3.59354e-07 -0.5)
(0.99999 -1.43741e-06 -0.5)
(0.999978 -3.23412e-06 -0.5)
(0.99996 -5.74946e-06 -0.5)
(0.999938 -8.98333e-06 -0.5)
(0.999911 -1.29357e-05 -0.5)
(0.999879 -1.76063e-05 -0.5)
(0.999842 -2.29951e-05 -0.5)
(0.9998 -2.9102e-05 -0.5)
(0.999753 -3.59268e-05 -0.5)
(0.999701 -4.34692e-05 -0.5)
(0.999644 -5.1729e-05 -0.5)
(0.999582 -6.07061e-05 -0.5)
(0.999515 -7.04001e-05 -0.5)
(0.999444 -8.08107e-05 -0.5)
(0.999367 -9.19377e-05 -0.5)
(0.999286 -0.000103781 -0.5)
(0.999199 -0.000116339 -0.5)
(0.999108 -0.000129614 -0.5)
(0.999011 -0.000143602 -0.5)
(0.99891 -0.000158306 -0.5)
(0.998804 -0.000173723 -0.5)
(0.998693 -0.000189855 -0.5)
(0.998577 -0.000206699 -0.5)
(0.998456 -0.000224256 -0.5)
(0.99833 -0.000242525 -0.5)
(0.998199 -0.000261507 -0.5)
(0.998063 -0.000281199 -0.5)
(0.997922 -0.000301601 -0.5)
(0.997777 -0.000322714 -0.5)
(0.997626 -0.000344535 -0.5)
(0.99747 -0.000367066 -0.5)
(0.99731 -0.000390305 -0.5)
(0.997145 -0.00041425 -0.5)
(0.996974 -0.000438903 -0.5)
(0.996799 -0.000464262 -0.5)
(0.996619 -0.000490325 -0.5)
(0.996434 -0.000517094 -0.5)
(0.996244 -0.000544566 -0.5)
(0.99605 -0.000572741 -0.5)
(0.99585 -0.000601618 -0.5)
(0.995645 -0.000631196 -0.5)
(0.995436 -0.000661474 -0.5)
(0.995221 -0.000692452 -0.5)
(0.995002 -0.000724129 -0.5)
(0.994778 -0.000756504 -0.5)
(0.994548 -0.000789575 -0.5)
(0.994314 -0.000823342 -0.5)
(0.994076 -0.000857805 -0.5)
(0.993832 -0.000892961 -0.5)
(0.993583 -0.00092881 -0.5)
(0.99333 -0.00096535 -0.5)
(0.993071 -0.00100258 -0.5)
(0.992808 -0.0010405 -0.5)
(0.99254 -0.00107911 -0.5)
(0.992267 -0.00111841 -0.5)
(0.991989 -0.00115839 -0.5)
(0.991706 -0.00119906 -0.5)
(0.991418 -0.00124042 -0.5)
(0.991126 -0.00128245 -0.5)
(0.990829 -0.00132517 -0.5)
(0.990526 -0.00136857 -0.5)
(0.990219 -0.00141265 -0.5)
(0.989907 -0.0014574 -0.5)
(0.989591 -0.00150284 -0.5)
(0.989269 -0.00154894 -0.5)
(0.988943 -0.00159573 -0.5)
(0.988611 -0.00164318 -0.5)
(0.988275 -0.00169131 -0.5)
(0.987934 -0.00174011 -0.5)
(0.987589 -0.00178957 -0.5)
(0.987238 -0.00183971 -0.5)
(0.986883 -0.00189051 -0.5)
(0.986522 -0.00194197 -0.5)
(0.986157 -0.0019941 -0.5)
(0.985788 -0.00204688 -0.5)
(0.985413 -0.00210033 -0.5)
(0.985034 -0.00215444 -0.5)
(0.984649 -0.00220921 -0.5)
(0.98426 -0.00226463 -0.5)
(0.983867 -0.0023207 -0.5)
(0.983468 -0.00237743 -0.5)
(0.983064 -0.00243481 -0.5)
(0.982656 -0.00249283 -0.5)
(0.982243 -0.00255151 -0.5)
(0.981826 -0.00261083 -0.5)
(0.981403 -0.00267079 -0.5)
(0.980976 -0.0027314 -0.5)
(0.980544 -0.00279265 -0.5)
(0.980107 -0.00285454 -0.5)
(0.979666 -0.00291707 -0.5)
(0.97922 -0.00298023 -0.5)
(0.978769 -0.00304402 -0.5)
(0.978313 -0.00310845 -0.5)
(0.977853 -0.00317351 -0.5)
(0.977387 -0.0032392 -0.5)
(0.976918 -0.00330552 -0.5)
(0.976443 -0.00337246 -0.5)