/*--------------------------------*- C++ -*----------------------------------*\
| =========                 |                                                 |
| \\      /  F ield         | OpenFOAM: The Open Source CFD Toolbox           |
|  \\    /   O peration     | Version:  2.3.x                                 |
|   \\  /    A nd           | Web:      www.OpenFOAM.org                      |
|    \\/     M anipulation  |                                                 |
\*---------------------------------------------------------------------------*/
FoamFile
{
    version     2.0;
    format      ascii;
    class       extendedFeatureEdgeMesh;
    location    "constant/extendedFeatureEdgeMesh";
    object      NACA0012.extendedFeatureEdgeMesh;
}
// * * * * * * * * * * * * * * * * * * * * * * * * * * * * * * * * * * * * * //

// points

3996
(
(0.304667 -7.61058e-18 -0.5)
(0.304667 -7.61058e-18 0.5)
(-0.152333 0 -0.5)
(-0.152332 0.000127921 -0.5)
(-0.152332 -0.000127921 -0.5)
(-0.152328 0.000255671 -0.5)
(-0.152323 0.000383249 -0.5)
(-0.152315 0.000510656 -0.5)
(-0.152305 0.00063789 -0.5)
(-0.152292 0.000764952 -0.5)
(-0.152278 0.000891841 -0.5)
(-0.152261 0.00101856 -0.5)
(-0.152241 0.0011451 -0.5)
(-0.15222 0.00127146 -0.5)
(-0.152196 0.00139766 -0.5)
(-0.15217 0.00152368 -0.5)
(-0.152142 0.00164952 -0.5)
(-0.152112 0.00177518 -0.5)
(-0.152079 0.00190067 -0.5)
(-0.152044 0.00202599 -0.5)
(-0.152007 0.00215112 -0.5)
(-0.151967 0.00227608 -0.5)
(-0.151925 0.00240086 -0.5)
(-0.151881 0.00252546 -0.5)
(-0.151835 0.00264988 -0.5)
(-0.151786 0.00277412 -0.5)
(-0.151736 0.00289818 -0.5)
(-0.151683 0.00302205 -0.5)
(-0.151627 0.00314575 -0.5)
(-0.15157 0.00326926 -0.5)
(-0.15151 0.00339259 -0.5)
(-0.151448 0.00351574 -0.5)
(-0.151383 0.0036387 -0.5)
(-0.151317 0.00376148 -0.5)
(-0.151248 0.00388407 -0.5)
(-0.151177 0.00400647 -0.5)
(-0.151104 0.00412869 -0.5)
(-0.151028 0.00425072 -0.5)
(-0.15095 0.00437255 -0.5)
(-0.15087 0.00449421 -0.5)
(-0.150788 0.00461567 -0.5)
(-0.150703 0.00473693 -0.5)
(-0.150617 0.00485801 -0.5)
(-0.150528 0.0049789 -0.5)
(-0.150436 0.00509959 -0.5)
(-0.150343 0.00522009 -0.5)
(-0.150247 0.00534039 -0.5)
(-0.150149 0.0054605 -0.5)
(-0.150049 0.00558041 -0.5)
(-0.149946 0.00570012 -0.5)
(-0.149842 0.00581963 -0.5)
(-0.149735 0.00593895 -0.5)
(-0.149626 0.00605807 -0.5)
(-0.149514 0.00617698 -0.5)
(-0.149401 0.00629569 -0.5)
(-0.149285 0.0064142 -0.5)
(-0.149167 0.00653251 -0.5)
(-0.149046 0.00665061 -0.5)
(-0.148924 0.00676851 -0.5)
(-0.148799 0.0068862 -0.5)
(-0.148672 0.00700368 -0.5)
(-0.148543 0.00712095 -0.5)
(-0.148411 0.00723802 -0.5)
(-0.148278 0.00735487 -0.5)
(-0.148142 0.00747151 -0.5)
(-0.148004 0.00758795 -0.5)
(-0.147863 0.00770416 -0.5)
(-0.147721 0.00782016 -0.5)
(-0.147576 0.00793595 -0.5)
(-0.147429 0.00805152 -0.5)
(-0.14728 0.00816687 -0.5)
(-0.147128 0.00828201 -0.5)
(-0.146975 0.00839692 -0.5)
(-0.146819 0.00851162 -0.5)
(-0.146661 0.00862609 -0.5)
(-0.146501 0.00874034 -0.5)
(-0.146338 0.00885436 -0.5)
(-0.146174 0.00896816 -0.5)
(-0.146007 0.00908173 -0.5)
(-0.145838 0.00919508 -0.5)
(-0.145667 0.00930819 -0.5)
(-0.145493 0.00942108 -0.5)
(-0.145318 0.00953374 -0.5)
(-0.14514 0.00964616 -0.5)
(-0.14496 0.00975835 -0.5)
(-0.144778 0.0098703 -0.5)
(-0.144593 0.00998202 -0.5)
(-0.144407 0.0100935 -0.5)
(-0.144218 0.0102048 -0.5)
(-0.144027 0.0103157 -0.5)
(-0.143834 0.0104265 -0.5)
(-0.143639 0.010537 -0.5)
(-0.143442 0.0106473 -0.5)
(-0.143242 0.0107574 -0.5)
(-0.14304 0.0108671 -0.5)
(-0.142836 0.0109767 -0.5)
(-0.14263 0.011086 -0.5)
(-0.142422 0.011195 -0.5)
(-0.142212 0.0113038 -0.5)
(-0.141999 0.0114124 -0.5)
(-0.141784 0.0115207 -0.5)
(-0.141567 0.0116287 -0.5)
(-0.141348 0.0117365 -0.5)
(-0.141127 0.011844 -0.5)
(-0.140904 0.0119513 -0.5)
(-0.140678 0.0120582 -0.5)
(-0.140451 0.012165 -0.5)
(-0.140221 0.0122715 -0.5)
(-0.139989 0.0123777 -0.5)
(-0.139755 0.0124836 -0.5)
(-0.139519 0.0125893 -0.5)
(-0.139281 0.0126947 -0.5)
(-0.13904 0.0127999 -0.5)
(-0.138798 0.0129048 -0.5)
(-0.138553 0.0130094 -0.5)
(-0.138306 0.0131137 -0.5)
(-0.138057 0.0132178 -0.5)
(-0.137806 0.0133215 -0.5)
(-0.137553 0.013425 -0.5)
(-0.137297 0.0135283 -0.5)
(-0.13704 0.0136312 -0.5)
(-0.13678 0.0137339 -0.5)
(-0.136519 0.0138362 -0.5)
(-0.136255 0.0139383 -0.5)
(-0.135989 0.0140401 -0.5)
(-0.135721 0.0141417 -0.5)
(-0.135451 0.0142429 -0.5)
(-0.135179 0.0143438 -0.5)
(-0.134905 0.0144445 -0.5)
(-0.134629 0.0145449 -0.5)
(-0.13435 0.0146449 -0.5)
(-0.13407 0.0147447 -0.5)
(-0.133787 0.0148442 -0.5)
(-0.133503 0.0149433 -0.5)
(-0.133216 0.0150422 -0.5)
(-0.132927 0.0151408 -0.5)
(-0.132637 0.015239 -0.5)
(-0.132344 0.015337 -0.5)
(-0.132049 0.0154347 -0.5)
(-0.131752 0.015532 -0.5)
(-0.131453 0.0156291 -0.5)
(-0.131152 0.0157258 -0.5)
(-0.130848 0.0158222 -0.5)
(-0.130543 0.0159183 -0.5)
(-0.130236 0.0160141 -0.5)
(-0.129927 0.0161096 -0.5)
(-0.129615 0.0162048 -0.5)
(-0.129302 0.0162996 -0.5)
(-0.128986 0.0163941 -0.5)
(-0.128669 0.0164884 -0.5)
(-0.128349 0.0165822 -0.5)
(-0.128028 0.0166758 -0.5)
(-0.127705 0.016769 -0.5)
(-0.127379 0.0168619 -0.5)
(-0.127051 0.0169545 -0.5)
(-0.126722 0.0170467 -0.5)
(-0.12639 0.0171387 -0.5)
(-0.126057 0.0172302 -0.5)
(-0.125721 0.0173215 -0.5)
(-0.125384 0.0174124 -0.5)
(-0.125044 0.017503 -0.5)
(-0.124703 0.0175932 -0.5)
(-0.124359 0.0176831 -0.5)
(-0.124014 0.0177727 -0.5)
(-0.123666 0.0178619 -0.5)
(-0.123317 0.0179507 -0.5)
(-0.122965 0.0180393 -0.5)
(-0.122612 0.0181274 -0.5)
(-0.122256 0.0182153 -0.5)
(-0.121899 0.0183027 -0.5)
(-0.12154 0.0183899 -0.5)
(-0.121179 0.0184766 -0.5)
(-0.120816 0.0185631 -0.5)
(-0.12045 0.0186491 -0.5)
(-0.120083 0.0187348 -0.5)
(-0.119714 0.0188202 -0.5)
(-0.119343 0.0189052 -0.5)
(-0.11897 0.0189898 -0.5)
(-0.118596 0.0190741 -0.5)
(-0.118219 0.019158 -0.5)
(-0.11784 0.0192415 -0.5)
(-0.117459 0.0193247 -0.5)
(-0.117077 0.0194075 -0.5)
(-0.116693 0.0194899 -0.5)
(-0.116306 0.019572 -0.5)
(-0.115918 0.0196537 -0.5)
(-0.115528 0.019735 -0.5)
(-0.115136 0.019816 -0.5)
(-0.114742 0.0198965 -0.5)
(-0.114346 0.0199767 -0.5)
(-0.113948 0.0200566 -0.5)
(-0.113549 0.020136 -0.5)
(-0.113147 0.0202151 -0.5)
(-0.112744 0.0202937 -0.5)
(-0.112339 0.020372 -0.5)
(-0.111932 0.0204499 -0.5)
(-0.111523 0.0205275 -0.5)
(-0.111112 0.0206046 -0.5)
(-0.1107 0.0206813 -0.5)
(-0.110285 0.0207577 -0.5)
(-0.109869 0.0208337 -0.5)
(-0.109451 0.0209093 -0.5)
(-0.109031 0.0209845 -0.5)
(-0.108609 0.0210592 -0.5)
(-0.108185 0.0211336 -0.5)
(-0.10776 0.0212076 -0.5)
(-0.107332 0.0212812 -0.5)
(-0.106903 0.0213544 -0.5)
(-0.106473 0.0214272 -0.5)
(-0.10604 0.0214997 -0.5)
(-0.105605 0.0215716 -0.5)
(-0.105169 0.0216432 -0.5)
(-0.104731 0.0217144 -0.5)
(-0.104291 0.0217852 -0.5)
(-0.103849 0.0218556 -0.5)
(-0.103406 0.0219256 -0.5)
(-0.10296 0.0219951 -0.5)
(-0.102514 0.0220643 -0.5)
(-0.102065 0.022133 -0.5)
(-0.101614 0.0222013 -0.5)
(-0.101162 0.0222693 -0.5)
(-0.100708 0.0223368 -0.5)
(-0.100252 0.0224038 -0.5)
(-0.0997945 0.0224705 -0.5)
(-0.0993352 0.0225368 -0.5)
(-0.0988742 0.0226026 -0.5)
(-0.0984114 0.022668 -0.5)
(-0.0979469 0.022733 -0.5)
(-0.0974807 0.0227976 -0.5)
(-0.0970128 0.0228617 -0.5)
(-0.0965432 0.0229254 -0.5)
(-0.0960718 0.0229887 -0.5)
(-0.0955988 0.0230516 -0.5)
(-0.095124 0.0231141 -0.5)
(-0.0946476 0.0231761 -0.5)
(-0.0941695 0.0232377 -0.5)
(-0.0936897 0.0232988 -0.5)
(-0.0932082 0.0233596 -0.5)
(-0.092725 0.0234199 -0.5)
(-0.0922402 0.0234797 -0.5)
(-0.0917537 0.0235392 -0.5)
(-0.0912655 0.0235982 -0.5)
(-0.0907757 0.0236568 -0.5)
(-0.0902842 0.0237149 -0.5)
(-0.0897911 0.0237726 -0.5)
(-0.0892964 0.0238299 -0.5)
(-0.0888 0.0238867 -0.5)
(-0.0883019 0.0239431 -0.5)
(-0.0878023 0.023999 -0.5)
(-0.087301 0.0240545 -0.5)
(-0.0867981 0.0241096 -0.5)
(-0.0862936 0.0241642 -0.5)
(-0.0857875 0.0242184 -0.5)
(-0.0852798 0.0242722 -0.5)
(-0.0847705 0.0243255 -0.5)
(-0.0842596 0.0243783 -0.5)
(-0.0837471 0.0244307 -0.5)
(-0.0832331 0.0244827 -0.5)
(-0.0827174 0.0245342 -0.5)
(-0.0822002 0.0245853 -0.5)
(-0.0816814 0.0246359 -0.5)
(-0.0811611 0.0246861 -0.5)
(-0.0806392 0.0247358 -0.5)
(-0.0801158 0.0247851 -0.5)
(-0.0795908 0.024834 -0.5)
(-0.0790643 0.0248824 -0.5)
(-0.0785362 0.0249303 -0.5)
(-0.0780066 0.0249778 -0.5)
(-0.0774755 0.0250248 -0.5)
(-0.0769428 0.0250714 -0.5)
(-0.0764087 0.0251175 -0.5)
(-0.075873 0.0251632 -0.5)
(-0.0753358 0.0252084 -0.5)
(-0.0747972 0.0252532 -0.5)
(-0.074257 0.0252975 -0.5)
(-0.0737154 0.0253414 -0.5)
(-0.0731722 0.0253848 -0.5)
(-0.0726276 0.0254277 -0.5)
(-0.0720816 0.0254702 -0.5)
(-0.071534 0.0255122 -0.5)
(-0.070985 0.0255538 -0.5)
(-0.0704346 0.0255949 -0.5)
(-0.0698826 0.0256356 -0.5)
(-0.0693293 0.0256758 -0.5)
(-0.0687745 0.0257156 -0.5)
(-0.0682183 0.0257549 -0.5)
(-0.0676606 0.0257937 -0.5)
(-0.0671015 0.0258321 -0.5)
(-0.0665411 0.02587 -0.5)
(-0.0659792 0.0259074 -0.5)
(-0.0654159 0.0259445 -0.5)
(-0.0648511 0.025981 -0.5)
(-0.064285 0.0260171 -0.5)
(-0.0637176 0.0260527 -0.5)
(-0.0631487 0.0260879 -0.5)
(-0.0625784 0.0261225 -0.5)
(-0.0620068 0.0261568 -0.5)
(-0.0614338 0.0261906 -0.5)
(-0.0608595 0.0262239 -0.5)
(-0.0602837 0.0262567 -0.5)
(-0.0597067 0.0262891 -0.5)
(-0.0591283 0.0263211 -0.5)
(-0.0585485 0.0263526 -0.5)
(-0.0579675 0.0263836 -0.5)
(-0.0573851 0.0264141 -0.5)
(-0.0568014 0.0264442 -0.5)
(-0.0562163 0.0264739 -0.5)
(-0.05563 0.026503 -0.5)
(-0.0550423 0.0265317 -0.5)
(-0.0544534 0.02656 -0.5)
(-0.0538631 0.0265878 -0.5)
(-0.0532716 0.0266151 -0.5)
(-0.0526788 0.026642 -0.5)
(-0.052085 0.0266684 -0.5)
(-0.051489 0.0266943 -0.5)
(-0.050893 0.0267198 -0.5)
(-0.050295 0.0267449 -0.5)
(-0.049696 0.0267694 -0.5)
(-0.049095 0.0267936 -0.5)
(-0.048494 0.0268172 -0.5)
(-0.047891 0.0268404 -0.5)
(-0.047287 0.0268631 -0.5)
(-0.046682 0.0268854 -0.5)
(-0.046075 0.0269072 -0.5)
(-0.045467 0.0269286 -0.5)
(-0.044859 0.0269495 -0.5)
(-0.044249 0.0269699 -0.5)
(-0.043637 0.0269899 -0.5)
(-0.043025 0.0270094 -0.5)
(-0.042411 0.0270285 -0.5)
(-0.041796 0.0270471 -0.5)
(-0.04118 0.0270653 -0.5)
(-0.040563 0.027083 -0.5)
(-0.039945 0.0271002 -0.5)
(-0.039325 0.027117 -0.5)
(-0.038705 0.0271333 -0.5)
(-0.038083 0.0271492 -0.5)
(-0.03746 0.0271647 -0.5)
(-0.036836 0.0271796 -0.5)
(-0.036211 0.0271942 -0.5)
(-0.035585 0.0272082 -0.5)
(-0.034957 0.0272218 -0.5)
(-0.034329 0.027235 -0.5)
(-0.0337 0.0272477 -0.5)
(-0.033069 0.02726 -0.5)
(-0.032437 0.0272718 -0.5)
(-0.031805 0.0272832 -0.5)
(-0.031171 0.0272941 -0.5)
(-0.030536 0.0273046 -0.5)
(-0.0299 0.0273146 -0.5)
(-0.029263 0.0273242 -0.5)
(-0.028625 0.0273333 -0.5)
(-0.027986 0.027342 -0.5)
(-0.027346 0.0273502 -0.5)
(-0.026705 0.027358 -0.5)
(-0.026062 0.0273654 -0.5)
(-0.025419 0.0273723 -0.5)
(-0.024775 0.0273787 -0.5)
(-0.02413 0.0273848 -0.5)
(-0.023484 0.0273904 -0.5)
(-0.022837 0.0273955 -0.5)
(-0.022189 0.0274002 -0.5)
(-0.02154 0.0274045 -0.5)
(-0.020889 0.0274083 -0.5)
(-0.020238 0.0274117 -0.5)
(-0.019586 0.0274146 -0.5)
(-0.018934 0.0274171 -0.5)
(-0.01828 0.0274192 -0.5)
(-0.017625 0.0274209 -0.5)
(-0.016969 0.0274221 -0.5)
(-0.016313 0.0274229 -0.5)
(-0.015655 0.0274232 -0.5)
(-0.014997 0.0274232 -0.5)
(-0.014337 0.0274226 -0.5)
(-0.013677 0.0274217 -0.5)
(-0.013016 0.0274203 -0.5)
(-0.012354 0.0274185 -0.5)
(-0.011691 0.0274163 -0.5)
(-0.011027 0.0274137 -0.5)
(-0.010362 0.0274106 -0.5)
(-0.009697 0.0274071 -0.5)
(-0.00903101 0.0274032 -0.5)
(-0.008363 0.0273989 -0.5)
(-0.007696 0.0273941 -0.5)
(-0.00702699 0.0273889 -0.5)
(-0.00635699 0.0273833 -0.5)
(-0.00568701 0.0273773 -0.5)
(-0.00501499 0.0273709 -0.5)
(-0.004343 0.027364 -0.5)
(-0.00367 0.0273568 -0.5)
(-0.002997 0.0273491 -0.5)
(-0.002322 0.027341 -0.5)
(-0.001647 0.0273325 -0.5)
(-0.000970998 0.0273236 -0.5)
(-0.000293994 0.0273143 -0.5)
(0.000382996 0.0273046 -0.5)
(0.001062 0.0272944 -0.5)
(0.001741 0.0272839 -0.5)
(0.002421 0.027273 -0.5)
(0.003101 0.0272616 -0.5)
(0.003782 0.0272499 -0.5)
(0.00446401 0.0272377 -0.5)
(0.005147 0.0272252 -0.5)
(0.00583 0.0272122 -0.5)
(0.006514 0.0271989 -0.5)
(0.007199 0.0271851 -0.5)
(0.007884 0.027171 -0.5)
(0.00857001 0.0271565 -0.5)
(0.009257 0.0271415 -0.5)
(0.009944 0.0271262 -0.5)
(0.010633 0.0271105 -0.5)
(0.011321 0.0270944 -0.5)
(0.012011 0.0270779 -0.5)
(0.012701 0.0270611 -0.5)
(0.013391 0.0270438 -0.5)
(0.014082 0.0270262 -0.5)
(0.014774 0.0270081 -0.5)
(0.015467 0.0269897 -0.5)
(0.01616 0.0269709 -0.5)
(0.016853 0.0269518 -0.5)
(0.017548 0.0269322 -0.5)
(0.018242 0.0269123 -0.5)
(0.018938 0.026892 -0.5)
(0.019634 0.0268714 -0.5)
(0.02033 0.0268503 -0.5)
(0.021027 0.0268289 -0.5)
(0.021725 0.0268071 -0.5)
(0.022423 0.026785 -0.5)
(0.023122 0.0267625 -0.5)
(0.023821 0.0267396 -0.5)
(0.024521 0.0267163 -0.5)
(0.025221 0.0266927 -0.5)
(0.025922 0.0266687 -0.5)
(0.026623 0.0266444 -0.5)
(0.027325 0.0266197 -0.5)
(0.028027 0.0265947 -0.5)
(0.02873 0.0265693 -0.5)
(0.029433 0.0265435 -0.5)
(0.030136 0.0265174 -0.5)
(0.03084 0.0264909 -0.5)
(0.031545 0.0264641 -0.5)
(0.03225 0.026437 -0.5)
(0.032955 0.0264095 -0.5)
(0.033661 0.0263816 -0.5)
(0.034367 0.0263534 -0.5)
(0.035074 0.0263249 -0.5)
(0.035781 0.026296 -0.5)
(0.036488 0.0262668 -0.5)
(0.037196 0.0262372 -0.5)
(0.037905 0.0262073 -0.5)
(0.038613 0.0261771 -0.5)
(0.039322 0.0261465 -0.5)
(0.040031 0.0261156 -0.5)
(0.040741 0.0260844 -0.5)
(0.041451 0.0260528 -0.5)
(0.042162 0.0260209 -0.5)
(0.042872 0.0259887 -0.5)
(0.043583 0.0259562 -0.5)
(0.044295 0.0259233 -0.5)
(0.045007 0.0258901 -0.5)
(0.045718 0.0258566 -0.5)
(0.046431 0.0258228 -0.5)
(0.047143 0.0257886 -0.5)
(0.047856 0.0257542 -0.5)
(0.04857 0.0257194 -0.5)
(0.049283 0.0256843 -0.5)
(0.049997 0.0256489 -0.5)
(0.050711 0.0256132 -0.5)
(0.051425 0.0255772 -0.5)
(0.052139 0.0255409 -0.5)
(0.052854 0.0255042 -0.5)
(0.053569 0.0254673 -0.5)
(0.054284 0.0254301 -0.5)
(0.055 0.0253925 -0.5)
(0.055715 0.0253547 -0.5)
(0.056431 0.0253166 -0.5)
(0.057147 0.0252781 -0.5)
(0.057863 0.0252394 -0.5)
(0.058579 0.0252004 -0.5)
(0.059296 0.0251611 -0.5)
(0.060013 0.0251215 -0.5)
(0.060729 0.0250816 -0.5)
(0.061446 0.0250415 -0.5)
(0.062164 0.025001 -0.5)
(0.062881 0.0249603 -0.5)
(0.063598 0.0249193 -0.5)
(0.064316 0.024878 -0.5)
(0.065034 0.0248364 -0.5)
(0.065751 0.0247946 -0.5)
(0.066469 0.0247525 -0.5)
(0.067187 0.0247101 -0.5)
(0.067905 0.0246674 -0.5)
(0.068623 0.0246245 -0.5)
(0.069342 0.0245812 -0.5)
(0.07006 0.0245378 -0.5)
(0.070778 0.024494 -0.5)
(0.071497 0.02445 -0.5)
(0.072215 0.0244058 -0.5)
(0.072934 0.0243613 -0.5)
(0.073652 0.0243165 -0.5)
(0.074371 0.0242714 -0.5)
(0.075089 0.0242261 -0.5)
(0.075808 0.0241806 -0.5)
(0.076526 0.0241348 -0.5)
(0.077245 0.0240887 -0.5)
(0.077963 0.0240424 -0.5)
(0.078682 0.0239959 -0.5)
(0.079401 0.0239491 -0.5)
(0.080119 0.023902 -0.5)
(0.080837 0.0238547 -0.5)
(0.081556 0.0238072 -0.5)
(0.082274 0.0237595 -0.5)
(0.082992 0.0237115 -0.5)
(0.083711 0.0236632 -0.5)
(0.084429 0.0236147 -0.5)
(0.085147 0.0235661 -0.5)
(0.085865 0.0235171 -0.5)
(0.086583 0.023468 -0.5)
(0.087301 0.0234186 -0.5)
(0.088018 0.0233689 -0.5)
(0.088736 0.0233191 -0.5)
(0.089453 0.023269 -0.5)
(0.09017 0.0232187 -0.5)
(0.090887 0.0231682 -0.5)
(0.091605 0.0231175 -0.5)
(0.092321 0.0230666 -0.5)
(0.093038 0.0230154 -0.5)
(0.093755 0.022964 -0.5)
(0.094471 0.0229124 -0.5)
(0.095187 0.0228606 -0.5)
(0.095903 0.0228086 -0.5)
(0.096619 0.0227564 -0.5)
(0.097334 0.022704 -0.5)
(0.09805 0.0226514 -0.5)
(0.098765 0.0225986 -0.5)
(0.09948 0.0225455 -0.5)
(0.100195 0.0224923 -0.5)
(0.100909 0.0224389 -0.5)
(0.101623 0.0223853 -0.5)
(0.102337 0.0223315 -0.5)
(0.103051 0.0222775 -0.5)
(0.103764 0.0222233 -0.5)
(0.104478 0.0221689 -0.5)
(0.105191 0.0221143 -0.5)
(0.105903 0.0220596 -0.5)
(0.106616 0.0220046 -0.5)
(0.107328 0.0219495 -0.5)
(0.108039 0.0218942 -0.5)
(0.108751 0.0218387 -0.5)
(0.109462 0.0217831 -0.5)
(0.110172 0.0217272 -0.5)
(0.110883 0.0216712 -0.5)
(0.111593 0.021615 -0.5)
(0.112303 0.0215586 -0.5)
(0.113012 0.0215021 -0.5)
(0.113721 0.0214454 -0.5)
(0.114429 0.0213885 -0.5)
(0.115138 0.0213315 -0.5)
(0.115846 0.0212743 -0.5)
(0.116553 0.0212169 -0.5)
(0.11726 0.0211594 -0.5)
(0.117967 0.0211018 -0.5)
(0.118673 0.0210439 -0.5)
(0.119379 0.0209859 -0.5)
(0.120084 0.0209278 -0.5)
(0.120789 0.0208695 -0.5)
(0.121494 0.020811 -0.5)
(0.122198 0.0207524 -0.5)
(0.122901 0.0206937 -0.5)
(0.123604 0.0206348 -0.5)
(0.124307 0.0205757 -0.5)
(0.125009 0.0205165 -0.5)
(0.125711 0.0204572 -0.5)
(0.126412 0.0203977 -0.5)
(0.127113 0.0203381 -0.5)
(0.127813 0.0202784 -0.5)
(0.128513 0.0202185 -0.5)
(0.129212 0.0201585 -0.5)
(0.129911 0.0200983 -0.5)
(0.130609 0.020038 -0.5)
(0.131307 0.0199776 -0.5)
(0.132004 0.0199171 -0.5)
(0.1327 0.0198564 -0.5)
(0.133396 0.0197956 -0.5)
(0.134092 0.0197347 -0.5)
(0.134786 0.0196737 -0.5)
(0.135481 0.0196125 -0.5)
(0.136174 0.0195512 -0.5)
(0.136867 0.0194898 -0.5)
(0.13756 0.0194283 -0.5)
(0.138252 0.0193667 -0.5)
(0.138943 0.019305 -0.5)
(0.139633 0.0192431 -0.5)
(0.140324 0.0191811 -0.5)
(0.141013 0.0191191 -0.5)
(0.141702 0.0190569 -0.5)
(0.14239 0.0189946 -0.5)
(0.143077 0.0189322 -0.5)
(0.143764 0.0188697 -0.5)
(0.14445 0.0188071 -0.5)
(0.145135 0.0187445 -0.5)
(0.14582 0.0186817 -0.5)
(0.146504 0.0186188 -0.5)
(0.147187 0.0185558 -0.5)
(0.14787 0.0184927 -0.5)
(0.148552 0.0184295 -0.5)
(0.149233 0.0183663 -0.5)
(0.149914 0.0183029 -0.5)
(0.150593 0.0182395 -0.5)
(0.151272 0.018176 -0.5)
(0.151951 0.0181124 -0.5)
(0.152628 0.0180487 -0.5)
(0.153305 0.0179849 -0.5)
(0.153981 0.017921 -0.5)
(0.154656 0.0178571 -0.5)
(0.155331 0.0177931 -0.5)
(0.156004 0.017729 -0.5)
(0.156677 0.0176648 -0.5)
(0.157349 0.0176006 -0.5)
(0.15802 0.0175363 -0.5)
(0.158691 0.0174719 -0.5)
(0.159361 0.0174075 -0.5)
(0.160029 0.0173429 -0.5)
(0.160698 0.0172784 -0.5)
(0.161365 0.0172137 -0.5)
(0.162031 0.017149 -0.5)
(0.162697 0.0170842 -0.5)
(0.163361 0.0170194 -0.5)
(0.164025 0.0169545 -0.5)
(0.164688 0.0168895 -0.5)
(0.16535 0.0168245 -0.5)
(0.166011 0.0167595 -0.5)
(0.166671 0.0166944 -0.5)
(0.167331 0.0166292 -0.5)
(0.167989 0.016564 -0.5)
(0.168647 0.0164987 -0.5)
(0.169303 0.0164334 -0.5)
(0.169959 0.016368 -0.5)
(0.170614 0.0163026 -0.5)
(0.171268 0.0162372 -0.5)
(0.17192 0.0161717 -0.5)
(0.172572 0.0161062 -0.5)
(0.173223 0.0160406 -0.5)
(0.173874 0.015975 -0.5)
(0.174523 0.0159093 -0.5)
(0.175171 0.0158437 -0.5)
(0.175818 0.0157779 -0.5)
(0.176464 0.0157122 -0.5)
(0.177109 0.0156464 -0.5)
(0.177753 0.0155806 -0.5)
(0.178396 0.0155148 -0.5)
(0.179039 0.0154489 -0.5)
(0.17968 0.015383 -0.5)
(0.18032 0.0153171 -0.5)
(0.180959 0.0152512 -0.5)
(0.181597 0.0151852 -0.5)
(0.182234 0.0151193 -0.5)
(0.18287 0.0150533 -0.5)
(0.183505 0.0149873 -0.5)
(0.184138 0.0149212 -0.5)
(0.184771 0.0148552 -0.5)
(0.185403 0.0147891 -0.5)
(0.186034 0.0147231 -0.5)
(0.186663 0.014657 -0.5)
(0.187291 0.0145909 -0.5)
(0.187919 0.0145248 -0.5)
(0.188545 0.0144587 -0.5)
(0.18917 0.0143926 -0.5)
(0.189794 0.0143265 -0.5)
(0.190417 0.0142604 -0.5)
(0.191039 0.0141943 -0.5)
(0.191659 0.0141282 -0.5)
(0.192279 0.0140621 -0.5)
(0.192897 0.013996 -0.5)
(0.193514 0.0139299 -0.5)
(0.19413 0.0138638 -0.5)
(0.194745 0.0137977 -0.5)
(0.195359 0.0137316 -0.5)
(0.195971 0.0136656 -0.5)
(0.196582 0.0135995 -0.5)
(0.197193 0.0135335 -0.5)
(0.197801 0.0134674 -0.5)
(0.198409 0.0134014 -0.5)
(0.199016 0.0133354 -0.5)
(0.199621 0.0132695 -0.5)
(0.200225 0.0132035 -0.5)
(0.200828 0.0131376 -0.5)
(0.20143 0.0130717 -0.5)
(0.20203 0.0130058 -0.5)
(0.202629 0.0129399 -0.5)
(0.203227 0.0128741 -0.5)
(0.203823 0.0128083 -0.5)
(0.204419 0.0127425 -0.5)
(0.205013 0.0126767 -0.5)
(0.205606 0.012611 -0.5)
(0.206197 0.0125453 -0.5)
(0.206787 0.0124797 -0.5)
(0.207376 0.0124141 -0.5)
(0.207964 0.0123485 -0.5)
(0.20855 0.0122829 -0.5)
(0.209135 0.0122174 -0.5)
(0.209719 0.012152 -0.5)
(0.210302 0.0120865 -0.5)
(0.210883 0.0120212 -0.5)
(0.211462 0.0119558 -0.5)
(0.212041 0.0118906 -0.5)
(0.212618 0.0118253 -0.5)
(0.213193 0.0117601 -0.5)
(0.213768 0.011695 -0.5)
(0.214341 0.0116299 -0.5)
(0.214912 0.0115649 -0.5)
(0.215483 0.0114999 -0.5)
(0.216052 0.011435 -0.5)
(0.216619 0.0113701 -0.5)
(0.217185 0.0113053 -0.5)
(0.21775 0.0112406 -0.5)
(0.218313 0.0111759 -0.5)
(0.218875 0.0111112 -0.5)
(0.219436 0.0110467 -0.5)
(0.219995 0.0109822 -0.5)
(0.220552 0.0109178 -0.5)
(0.221108 0.0108534 -0.5)
(0.221663 0.0107891 -0.5)
(0.222217 0.0107249 -0.5)
(0.222769 0.0106607 -0.5)
(0.223319 0.0105966 -0.5)
(0.223868 0.0105326 -0.5)
(0.224416 0.0104687 -0.5)
(0.224962 0.0104049 -0.5)
(0.225506 0.0103411 -0.5)
(0.226049 0.0102774 -0.5)
(0.226591 0.0102138 -0.5)
(0.227131 0.0101502 -0.5)
(0.22767 0.0100868 -0.5)
(0.228207 0.0100234 -0.5)
(0.228743 0.00996013 -0.5)
(0.229277 0.00989693 -0.5)
(0.22981 0.00983383 -0.5)
(0.230341 0.00977081 -0.5)
(0.23087 0.00970789 -0.5)
(0.231398 0.00964506 -0.5)
(0.231925 0.00958232 -0.5)
(0.23245 0.00951968 -0.5)
(0.232973 0.00945713 -0.5)
(0.233495 0.00939468 -0.5)
(0.234015 0.00933233 -0.5)
(0.234534 0.00927009 -0.5)
(0.235051 0.00920794 -0.5)
(0.235567 0.00914589 -0.5)
(0.236081 0.00908395 -0.5)
(0.236594 0.00902212 -0.5)
(0.237104 0.00896039 -0.5)
(0.237614 0.00889877 -0.5)
(0.238122 0.00883726 -0.5)
(0.238628 0.00877586 -0.5)
(0.239132 0.00871457 -0.5)
(0.239635 0.0086534 -0.5)
(0.240136 0.00859234 -0.5)
(0.240636 0.0085314 -0.5)
(0.241134 0.00847057 -0.5)
(0.24163 0.00840986 -0.5)
(0.242125 0.00834928 -0.5)
(0.242618 0.00828881 -0.5)
(0.24311 0.00822846 -0.5)
(0.243599 0.00816824 -0.5)
(0.244088 0.00810815 -0.5)
(0.244574 0.00804818 -0.5)
(0.245059 0.00798834 -0.5)
(0.245542 0.00792863 -0.5)
(0.246024 0.00786905 -0.5)
(0.246503 0.00780959 -0.5)
(0.246982 0.00775028 -0.5)
(0.247458 0.00769109 -0.5)
(0.247933 0.00763204 -0.5)
(0.248406 0.00757313 -0.5)
(0.248877 0.00751436 -0.5)
(0.249347 0.00745573 -0.5)
(0.249815 0.00739723 -0.5)
(0.250281 0.00733888 -0.5)
(0.250745 0.00728067 -0.5)
(0.251208 0.00722261 -0.5)
(0.251669 0.00716469 -0.5)
(0.252129 0.00710692 -0.5)
(0.252586 0.00704929 -0.5)
(0.253042 0.00699182 -0.5)
(0.253496 0.0069345 -0.5)
(0.253948 0.00687732 -0.5)
(0.254399 0.00682031 -0.5)
(0.254847 0.00676344 -0.5)
(0.255294 0.00670674 -0.5)
(0.25574 0.00665019 -0.5)
(0.256183 0.0065938 -0.5)
(0.256625 0.00653756 -0.5)
(0.257065 0.00648149 -0.5)
(0.257503 0.00642559 -0.5)
(0.257939 0.00636984 -0.5)
(0.258374 0.00631426 -0.5)
(0.258806 0.00625885 -0.5)
(0.259237 0.0062036 -0.5)
(0.259666 0.00614852 -0.5)
(0.260094 0.00609362 -0.5)
(0.260519 0.00603888 -0.5)
(0.260943 0.00598431 -0.5)
(0.261365 0.00592992 -0.5)
(0.261785 0.00587571 -0.5)
(0.262203 0.00582167 -0.5)
(0.262619 0.00576781 -0.5)
(0.263034 0.00571412 -0.5)
(0.263446 0.00566062 -0.5)
(0.263857 0.0056073 -0.5)
(0.264266 0.00555415 -0.5)
(0.264673 0.0055012 -0.5)
(0.265078 0.00544843 -0.5)
(0.265481 0.00539584 -0.5)
(0.265883 0.00534344 -0.5)
(0.266282 0.00529123 -0.5)
(0.26668 0.00523921 -0.5)
(0.267076 0.00518738 -0.5)
(0.26747 0.00513575 -0.5)
(0.267862 0.0050843 -0.5)
(0.268252 0.00503305 -0.5)
(0.26864 0.004982 -0.5)
(0.269027 0.00493115 -0.5)
(0.269411 0.00488049 -0.5)
(0.269794 0.00483003 -0.5)
(0.270174 0.00477978 -0.5)
(0.270553 0.00472972 -0.5)
(0.27093 0.00467987 -0.5)
(0.271304 0.00463022 -0.5)
(0.271677 0.00458078 -0.5)
(0.272048 0.00453154 -0.5)
(0.272417 0.00448252 -0.5)
(0.272784 0.0044337 -0.5)
(0.27315 0.00438509 -0.5)
(0.273513 0.00433669 -0.5)
(0.273874 0.00428851 -0.5)
(0.274233 0.00424054 -0.5)
(0.274591 0.00419279 -0.5)
(0.274946 0.00414525 -0.5)
(0.275299 0.00409793 -0.5)
(0.275651 0.00405082 -0.5)
(0.276 0.00400394 -0.5)
(0.276348 0.00395728 -0.5)
(0.276693 0.00391084 -0.5)
(0.277037 0.00386462 -0.5)
(0.277378 0.00381863 -0.5)
(0.277718 0.00377287 -0.5)
(0.278055 0.00372733 -0.5)
(0.278391 0.00368201 -0.5)
(0.278724 0.00363693 -0.5)
(0.279056 0.00359208 -0.5)
(0.279385 0.00354745 -0.5)
(0.279713 0.00350306 -0.5)
(0.280039 0.00345891 -0.5)
(0.280362 0.00341499 -0.5)
(0.280684 0.0033713 -0.5)
(0.281003 0.00332785 -0.5)
(0.28132 0.00328464 -0.5)
(0.281636 0.00324166 -0.5)
(0.281949 0.00319893 -0.5)
(0.282261 0.00315644 -0.5)
(0.28257 0.00311419 -0.5)
(0.282877 0.00307218 -0.5)
(0.283182 0.00303042 -0.5)
(0.283485 0.0029889 -0.5)
(0.283787 0.00294764 -0.5)
(0.284086 0.00290661 -0.5)
(0.284383 0.00286584 -0.5)
(0.284678 0.00282532 -0.5)
(0.284971 0.00278504 -0.5)
(0.285261 0.00274502 -0.5)
(0.28555 0.00270525 -0.5)
(0.285837 0.00266574 -0.5)
(0.286121 0.00262648 -0.5)
(0.286404 0.00258747 -0.5)
(0.286684 0.00254873 -0.5)
(0.286963 0.00251023 -0.5)
(0.287239 0.00247201 -0.5)
(0.287513 0.00243404 -0.5)
(0.287785 0.00239633 -0.5)
(0.288055 0.00235888 -0.5)
(0.288323 0.00232169 -0.5)
(0.288589 0.00228477 -0.5)
(0.288853 0.00224812 -0.5)
(0.289114 0.00221173 -0.5)
(0.289374 0.0021756 -0.5)
(0.289631 0.00213975 -0.5)
(0.289887 0.00210416 -0.5)
(0.29014 0.00206885 -0.5)
(0.290391 0.0020338 -0.5)
(0.29064 0.00199903 -0.5)
(0.290887 0.00196452 -0.5)
(0.291131 0.0019303 -0.5)
(0.291374 0.00189634 -0.5)
(0.291614 0.00186266 -0.5)
(0.291853 0.00182926 -0.5)
(0.292089 0.00179613 -0.5)
(0.292323 0.00176329 -0.5)
(0.292555 0.00173072 -0.5)
(0.292785 0.00169843 -0.5)
(0.293012 0.00166642 -0.5)
(0.293238 0.0016347 -0.5)
(0.293461 0.00160325 -0.5)
(0.293682 0.00157209 -0.5)
(0.293901 0.00154121 -0.5)
(0.294118 0.00151062 -0.5)
(0.294333 0.00148031 -0.5)
(0.294546 0.00145029 -0.5)
(0.294756 0.00142056 -0.5)
(0.294964 0.00139112 -0.5)
(0.29517 0.00136196 -0.5)
(0.295374 0.0013331 -0.5)
(0.295576 0.00130452 -0.5)
(0.295776 0.00127624 -0.5)
(0.295973 0.00124825 -0.5)
(0.296168 0.00122055 -0.5)
(0.296361 0.00119315 -0.5)
(0.296552 0.00116604 -0.5)
(0.296741 0.00113922 -0.5)
(0.296928 0.00111271 -0.5)
(0.297112 0.00108648 -0.5)
(0.297294 0.00106056 -0.5)
(0.297474 0.00103493 -0.5)
(0.297652 0.00100961 -0.5)
(0.297827 0.00098458 -0.5)
(0.298001 0.000959853 -0.5)
(0.298172 0.000935427 -0.5)
(0.298341 0.000911302 -0.5)
(0.298508 0.00088748 -0.5)
(0.298672 0.000863961 -0.5)
(0.298835 0.000840746 -0.5)
(0.298995 0.000817835 -0.5)
(0.299153 0.000795229 -0.5)
(0.299309 0.000772929 -0.5)
(0.299462 0.000750935 -0.5)
(0.299614 0.000729248 -0.5)
(0.299763 0.000707868 -0.5)
(0.29991 0.000686797 -0.5)
(0.300055 0.000666034 -0.5)
(0.300197 0.00064558 -0.5)
(0.300338 0.000625437 -0.5)
(0.300476 0.000605603 -0.5)
(0.300612 0.000586081 -0.5)
(0.300745 0.000566871 -0.5)
(0.300877 0.000547972 -0.5)
(0.301006 0.000529386 -0.5)
(0.301133 0.000511114 -0.5)
(0.301258 0.000493155 -0.5)
(0.30138 0.00047551 -0.5)
(0.301501 0.00045818 -0.5)
(0.301619 0.000441165 -0.5)
(0.301734 0.000424466 -0.5)
(0.301848 0.000408083 -0.5)
(0.30196 0.000392017 -0.5)
(0.302069 0.000376268 -0.5)
(0.302176 0.000360836 -0.5)
(0.30228 0.000345722 -0.5)
(0.302383 0.000330927 -0.5)
(0.302483 0.000316451 -0.5)
(0.302581 0.000302294 -0.5)
(0.302677 0.000288456 -0.5)
(0.30277 0.000274939 -0.5)
(0.302862 0.000261742 -0.5)
(0.302951 0.000248867 -0.5)
(0.303037 0.000236312 -0.5)
(0.303122 0.000224079 -0.5)
(0.303204 0.000212168 -0.5)
(0.303284 0.000200579 -0.5)
(0.303362 0.000189312 -0.5)
(0.303438 0.000178369 -0.5)
(0.303511 0.000167749 -0.5)
(0.303582 0.000157453 -0.5)
(0.303651 0.00014748 -0.5)
(0.303717 0.000137832 -0.5)
(0.303782 0.000128508 -0.5)
(0.303844 0.000119508 -0.5)
(0.303904 0.000110834 -0.5)
(0.303961 0.000102485 -0.5)
(0.304016 9.44615e-05 -0.5)
(0.30407 8.67636e-05 -0.5)
(0.30412 7.93916e-05 -0.5)
(0.304169 7.23458e-05 -0.5)
(0.304215 6.56263e-05 -0.5)
(0.304259 5.92333e-05 -0.5)
(0.304301 5.31671e-05 -0.5)
(0.304341 4.74278e-05 -0.5)
(0.304378 4.20155e-05 -0.5)
(0.304413 3.69305e-05 -0.5)
(0.304446 3.21728e-05 -0.5)
(0.304476 2.77427e-05 -0.5)
(0.304504 2.36402e-05 -0.5)
(0.30453 1.98654e-05 -0.5)
(0.304554 1.64185e-05 -0.5)
(0.304575 1.32996e-05 -0.5)
(0.304595 1.05088e-05 -0.5)
(0.304612 8.04608e-06 -0.5)
(0.304626 5.91159e-06 -0.5)
(0.304639 4.10538e-06 -0.5)
(0.304649 2.6275e-06 -0.5)
(0.304657 1.478e-06 -0.5)
(0.304662 6.56895e-07 -0.5)
(0.304666 1.64225e-07 -0.5)
(0.304666 -1.64225e-07 -0.5)
(0.304662 -6.56895e-07 -0.5)
(0.304657 -1.478e-06 -0.5)
(0.304649 -2.6275e-06 -0.5)
(0.304639 -4.10538e-06 -0.5)
(0.304626 -5.91159e-06 -0.5)
(0.304612 -8.04608e-06 -0.5)
(0.304595 -1.05088e-05 -0.5)
(0.304575 -1.32996e-05 -0.5)
(0.304554 -1.64185e-05 -0.5)
(0.30453 -1.98654e-05 -0.5)
(0.304504 -2.36402e-05 -0.5)
(0.304476 -2.77427e-05 -0.5)
(0.304446 -3.21728e-05 -0.5)
(0.304413 -3.69305e-05 -0.5)
(0.304378 -4.20155e-05 -0.5)
(0.304341 -4.74278e-05 -0.5)
(0.304301 -5.31671e-05 -0.5)
(0.304259 -5.92333e-05 -0.5)
(0.304215 -6.56263e-05 -0.5)
(0.304169 -7.23458e-05 -0.5)
(0.30412 -7.93916e-05 -0.5)
(0.30407 -8.67636e-05 -0.5)
(0.304016 -9.44615e-05 -0.5)
(0.303961 -0.000102485 -0.5)
(0.303904 -0.000110834 -0.5)
(0.303844 -0.000119508 -0.5)
(0.303782 -0.000128508 -0.5)
(0.303717 -0.000137832 -0.5)
(0.303651 -0.00014748 -0.5)
(0.303582 -0.000157453 -0.5)
(0.303511 -0.000167749 -0.5)
(0.303438 -0.000178369 -0.5)
(0.303362 -0.000189312 -0.5)
(0.303284 -0.000200579 -0.5)
(0.303204 -0.000212168 -0.5)
(0.303122 -0.000224079 -0.5)
(0.303037 -0.000236312 -0.5)
(0.302951 -0.000248867 -0.5)
(0.302862 -0.000261742 -0.5)
(0.30277 -0.000274939 -0.5)
(0.302677 -0.000288456 -0.5)
(0.302581 -0.000302294 -0.5)
(0.302483 -0.000316451 -0.5)
(0.302383 -0.000330927 -0.5)
(0.30228 -0.000345722 -0.5)
(0.302176 -0.000360836 -0.5)
(0.302069 -0.000376268 -0.5)
(0.30196 -0.000392017 -0.5)
(0.301848 -0.000408083 -0.5)
(0.301734 -0.000424466 -0.5)
(0.301619 -0.000441165 -0.5)
(0.301501 -0.00045818 -0.5)
(0.30138 -0.00047551 -0.5)
(0.301258 -0.000493155 -0.5)
(0.301133 -0.000511114 -0.5)
(0.301006 -0.000529386 -0.5)
(0.300877 -0.000547972 -0.5)
(0.300745 -0.000566871 -0.5)
(0.300612 -0.000586081 -0.5)
(0.300476 -0.000605603 -0.5)
(0.300338 -0.000625437 -0.5)
(0.300197 -0.00064558 -0.5)
(0.300055 -0.000666034 -0.5)
(0.29991 -0.000686797 -0.5)
(0.299763 -0.000707868 -0.5)
(0.299614 -0.000729248 -0.5)
(0.299462 -0.000750935 -0.5)
(0.299309 -0.000772929 -0.5)
(0.299153 -0.000795229 -0.5)
(0.298995 -0.000817835 -0.5)
(0.298835 -0.000840746 -0.5)
(0.298672 -0.000863961 -0.5)
(0.298508 -0.00088748 -0.5)
(0.298341 -0.000911302 -0.5)
(0.298172 -0.000935427 -0.5)
(0.298001 -0.000959853 -0.5)
(0.297827 -0.00098458 -0.5)
(0.297652 -0.00100961 -0.5)
(0.297474 -0.00103493 -0.5)
(0.297294 -0.00106056 -0.5)
(0.297112 -0.00108648 -0.5)