/*--------------------------------*- C++ -*----------------------------------*\
| =========                 |                                                 |
| \\      /  F ield         | OpenFOAM: The Open Source CFD Toolbox           |
|  \\    /   O peration     | Version:  2.3.0                                 |
|   \\  /    A nd           | Web:      www.OpenFOAM.org                      |
|    \\/     M anipulation  |                                                 |
\*---------------------------------------------------------------------------*/
FoamFile
{
    version     2.0;
    format      ascii;
    class       volScalarField;
    object      T;
}
// * * * * * * * * * * * * * * * * * * * * * * * * * * * * * * * * * * * * * //

dimensions      [0 0 0 1 0 0 0];

internalField   uniform 300;

boundaryField
{
    inlet
    {
        type            uniformFixedValue;
        uniformValue        table 
        ( 
            (0.0   500.0) 
            (1.0  1000.0) 
            (2.0   1500.0)
            (3.0   500.0)
            (4.0   400.0)
            (5.0   350.0)
            (6.0   300.0)
            (7.0   300.0)
            (8.0   300.0)
            (9.0   300.0)
            (10.0   300.0)
        );
    }

    outlet
    {
        type            fixedValue;
        value           uniform 300;
    }

    upperWall
    {
       type            zeroGradient; 
       // type            fixedValue;
       // value           uniform 350;
    }

    lowerWall
    {
        type            zeroGradient; 
        //type            fixedValue;
        //value           uniform 320;
    }

    frontAndBack
    {
        type            empty;
    }
}

// ************************************************************************* //
